new_load_data.txt
New Load.LoadP1 bus1=7331.1.4 kV=0.24 Vminpu=0.1 Vmaxpu=1.9 model=1 kW=1 pf=0.9 Phases=1 daily=LoadProfileP1
New Load.LoadP2 bus1=7512.2.4 kV=0.24 Vminpu=0.1 Vmaxpu=1.9 model=1 kW=1 pf=0.9 Phases=1 daily=LoadProfileP2
New Load.LoadP3 bus1=8017.2.4 kV=0.24 Vminpu=0.1 Vmaxpu=1.9 model=1 kW=1 pf=0.9 Phases=1 daily=LoadProfileP3
New Load.LoadP4 bus1=7516.3.4 kV=0.24 Vminpu=0.1 Vmaxpu=1.9 model=1 kW=1 pf=0.9 Phases=1 daily=LoadProfileP4
New Load.LoadP5 bus1=8018.3.4 kV=0.24 Vminpu=0.1 Vmaxpu=1.9 model=1 kW=1 pf=0.9 Phases=1 daily=LoadProfileP5
New Load.LoadP6 bus1=7691.2.4 kV=0.24 Vminpu=0.1 Vmaxpu=1.9 model=1 kW=1 pf=0.9 Phases=1 daily=LoadProfileP6
New Load.LoadP7 bus1=7426.1.4 kV=0.24 Vminpu=0.1 Vmaxpu=1.9 model=1 kW=1 pf=0.9 Phases=1 daily=LoadProfileP7
New Load.LoadP8 bus1=7759.1.4 kV=0.24 Vminpu=0.1 Vmaxpu=1.9 model=1 kW=1 pf=0.9 Phases=1 daily=LoadProfileP8
New Load.LoadP9 bus1=8055.3.4 kV=0.24 Vminpu=0.1 Vmaxpu=1.9 model=1 kW=1 pf=0.9 Phases=1 daily=LoadProfileP9
New Load.LoadP10 bus1=8056.1.4 kV=0.24 Vminpu=0.1 Vmaxpu=1.9 model=1 kW=1 pf=0.9 Phases=1 daily=LoadProfileP10
New Load.LoadP11 bus1=7570.1.4 kV=0.24 Vminpu=0.1 Vmaxpu=1.9 model=1 kW=1 pf=0.9 Phases=1 daily=LoadProfileP11
New Load.LoadP12 bus1=7499.2.4 kV=0.24 Vminpu=0.1 Vmaxpu=1.9 model=1 kW=1 pf=0.9 Phases=1 daily=LoadProfileP12
New Load.LoadP13 bus1=7397.3.4 kV=0.24 Vminpu=0.1 Vmaxpu=1.9 model=1 kW=1 pf=0.9 Phases=1 daily=LoadProfileP13
New Load.LoadP14 bus1=7244.3.4 kV=0.24 Vminpu=0.1 Vmaxpu=1.9 model=1 kW=1 pf=0.9 Phases=1 daily=LoadProfileP14
New Load.LoadP15 bus1=6952.1.4 kV=0.24 Vminpu=0.1 Vmaxpu=1.9 model=1 kW=1 pf=0.9 Phases=1 daily=LoadProfileP15
New Load.LoadP16 bus1=8057.3.4 kV=0.24 Vminpu=0.1 Vmaxpu=1.9 model=1 kW=1 pf=0.9 Phases=1 daily=LoadProfileP16
New Load.LoadP17 bus1=7488.1.4 kV=0.24 Vminpu=0.1 Vmaxpu=1.9 model=1 kW=1 pf=0.9 Phases=1 daily=LoadProfileP17
New Load.LoadP18 bus1=7649.3.4 kV=0.24 Vminpu=0.1 Vmaxpu=1.9 model=1 kW=1 pf=0.9 Phases=1 daily=LoadProfileP18
New Load.LoadP19 bus1=7717.2.4 kV=0.24 Vminpu=0.1 Vmaxpu=1.9 model=1 kW=1 pf=0.9 Phases=1 daily=LoadProfileP19
New Load.LoadP20 bus1=7525.1.4 kV=0.24 Vminpu=0.1 Vmaxpu=1.9 model=1 kW=1 pf=0.9 Phases=1 daily=LoadProfileP20
New Load.LoadP21 bus1=8058.3.4 kV=0.24 Vminpu=0.1 Vmaxpu=1.9 model=1 kW=1 pf=0.9 Phases=1 daily=LoadProfileP21
New Load.LoadP22 bus1=8059.3.4 kV=0.24 Vminpu=0.1 Vmaxpu=1.9 model=1 kW=1 pf=0.9 Phases=1 daily=LoadProfileP22
New Load.LoadP23 bus1=8060.2.4 kV=0.24 Vminpu=0.1 Vmaxpu=1.9 model=1 kW=1 pf=0.9 Phases=1 daily=LoadProfileP23
New Load.LoadP24 bus1=8061.3.4 kV=0.24 Vminpu=0.1 Vmaxpu=1.9 model=1 kW=1 pf=0.9 Phases=1 daily=LoadProfileP24
New Load.LoadP25 bus1=8062.1.4 kV=0.24 Vminpu=0.1 Vmaxpu=1.9 model=1 kW=1 pf=0.9 Phases=1 daily=LoadProfileP25
New Load.LoadP26 bus1=8063.1.4 kV=0.24 Vminpu=0.1 Vmaxpu=1.9 model=1 kW=1 pf=0.9 Phases=1 daily=LoadProfileP26
New Load.LoadP27 bus1=8064.1.4 kV=0.24 Vminpu=0.1 Vmaxpu=1.9 model=1 kW=1 pf=0.9 Phases=1 daily=LoadProfileP27
New Load.LoadP28 bus1=8065.1.4 kV=0.24 Vminpu=0.1 Vmaxpu=1.9 model=1 kW=1 pf=0.9 Phases=1 daily=LoadProfileP28
New Load.LoadP29 bus1=8066.3.4 kV=0.24 Vminpu=0.1 Vmaxpu=1.9 model=1 kW=1 pf=0.9 Phases=1 daily=LoadProfileP29
New Load.LoadP30 bus1=8067.2.4 kV=0.24 Vminpu=0.1 Vmaxpu=1.9 model=1 kW=1 pf=0.9 Phases=1 daily=LoadProfileP30
New Load.LoadP31 bus1=8068.2.4 kV=0.24 Vminpu=0.1 Vmaxpu=1.9 model=1 kW=1 pf=0.9 Phases=1 daily=LoadProfileP31
New Load.LoadP32 bus1=8069.2.4 kV=0.24 Vminpu=0.1 Vmaxpu=1.9 model=1 kW=1 pf=0.9 Phases=1 daily=LoadProfileP32
New Load.LoadP33 bus1=8070.2.4 kV=0.24 Vminpu=0.1 Vmaxpu=1.9 model=1 kW=1 pf=0.9 Phases=1 daily=LoadProfileP33
New Load.LoadP34 bus1=8071.2.4 kV=0.24 Vminpu=0.1 Vmaxpu=1.9 model=1 kW=1 pf=0.9 Phases=1 daily=LoadProfileP34
New Load.LoadP35 bus1=8072.2.4 kV=0.24 Vminpu=0.1 Vmaxpu=1.9 model=1 kW=1 pf=0.9 Phases=1 daily=LoadProfileP35
New Load.LoadP36 bus1=8073.1.4 kV=0.24 Vminpu=0.1 Vmaxpu=1.9 model=1 kW=1 pf=0.9 Phases=1 daily=LoadProfileP36
New Load.LoadP37 bus1=8074.1.4 kV=0.24 Vminpu=0.1 Vmaxpu=1.9 model=1 kW=1 pf=0.9 Phases=1 daily=LoadProfileP37
New Load.LoadP38 bus1=8075.1.4 kV=0.24 Vminpu=0.1 Vmaxpu=1.9 model=1 kW=1 pf=0.9 Phases=1 daily=LoadProfileP38
New Load.LoadP39 bus1=8076.3.4 kV=0.24 Vminpu=0.1 Vmaxpu=1.9 model=1 kW=1 pf=0.9 Phases=1 daily=LoadProfileP39
New Load.LoadP40 bus1=8173.1.4 kV=0.24 Vminpu=0.1 Vmaxpu=1.9 model=1 kW=1 pf=0.9 Phases=1 daily=LoadProfileP40
New Load.LoadP41 bus1=7747.1.4 kV=0.24 Vminpu=0.1 Vmaxpu=1.9 model=1 kW=1 pf=0.9 Phases=1 daily=LoadProfileP41
New Load.LoadP42 bus1=7513.2.4 kV=0.24 Vminpu=0.1 Vmaxpu=1.9 model=1 kW=1 pf=0.9 Phases=1 daily=LoadProfileP42
New Load.LoadP43 bus1=8185.3.4 kV=0.24 Vminpu=0.1 Vmaxpu=1.9 model=1 kW=1 pf=0.9 Phases=1 daily=LoadProfileP43
New Load.LoadP44 bus1=8211.1.4 kV=0.24 Vminpu=0.1 Vmaxpu=1.9 model=1 kW=1 pf=0.9 Phases=1 daily=LoadProfileP44
New Load.LoadP45 bus1=7322.3.4 kV=0.24 Vminpu=0.1 Vmaxpu=1.9 model=1 kW=1 pf=0.9 Phases=1 daily=LoadProfileP45
New Load.LoadP46 bus1=8269.3.4 kV=0.24 Vminpu=0.1 Vmaxpu=1.9 model=1 kW=1 pf=0.9 Phases=1 daily=LoadProfileP46
New Load.LoadP47 bus1=8289.3.4 kV=0.24 Vminpu=0.1 Vmaxpu=1.9 model=1 kW=1 pf=0.9 Phases=1 daily=LoadProfileP47
New Load.LoadP48 bus1=7628.3.4 kV=0.24 Vminpu=0.1 Vmaxpu=1.9 model=1 kW=1 pf=0.9 Phases=1 daily=LoadProfileP48
New Load.LoadP49 bus1=8335.3.4 kV=0.24 Vminpu=0.1 Vmaxpu=1.9 model=1 kW=1 pf=0.9 Phases=1 daily=LoadProfileP49
New Load.LoadP50 bus1=8336.2.4 kV=0.24 Vminpu=0.1 Vmaxpu=1.9 model=1 kW=1 pf=0.9 Phases=1 daily=LoadProfileP50
New Load.LoadP51 bus1=8378.2.4 kV=0.24 Vminpu=0.1 Vmaxpu=1.9 model=1 kW=1 pf=0.9 Phases=1 daily=LoadProfileP51
New Load.LoadP52 bus1=7390.3.4 kV=0.24 Vminpu=0.1 Vmaxpu=1.9 model=1 kW=1 pf=0.9 Phases=1 daily=LoadProfileP52
New Load.LoadP53 bus1=8422.1.4 kV=0.24 Vminpu=0.1 Vmaxpu=1.9 model=1 kW=1 pf=0.9 Phases=1 daily=LoadProfileP53
New Load.LoadP54 bus1=8488.1.4 kV=0.24 Vminpu=0.1 Vmaxpu=1.9 model=1 kW=1 pf=0.9 Phases=1 daily=LoadProfileP54
New Load.LoadP55 bus1=7687.1.4 kV=0.24 Vminpu=0.1 Vmaxpu=1.9 model=1 kW=1 pf=0.9 Phases=1 daily=LoadProfileP55
New Load.LoadP56 bus1=7400.1.4 kV=0.24 Vminpu=0.1 Vmaxpu=1.9 model=1 kW=1 pf=0.9 Phases=1 daily=LoadProfileP56
New Load.LoadP57 bus1=7785.3.4 kV=0.24 Vminpu=0.1 Vmaxpu=1.9 model=1 kW=1 pf=0.9 Phases=1 daily=LoadProfileP57
New Load.LoadP58 bus1=8536.1.4 kV=0.24 Vminpu=0.1 Vmaxpu=1.9 model=1 kW=1 pf=0.9 Phases=1 daily=LoadProfileP58
New Load.LoadP59 bus1=7236.1.4 kV=0.24 Vminpu=0.1 Vmaxpu=1.9 model=1 kW=1 pf=0.9 Phases=1 daily=LoadProfileP59
New Load.LoadP60 bus1=7650.2.4 kV=0.24 Vminpu=0.1 Vmaxpu=1.9 model=1 kW=1 pf=0.9 Phases=1 daily=LoadProfileP60
New Load.LoadP61 bus1=8019.1.4 kV=0.24 Vminpu=0.1 Vmaxpu=1.9 model=1 kW=1 pf=0.9 Phases=1 daily=LoadProfileP61
New Load.LoadP62 bus1=8019.2.4 kV=0.24 Vminpu=0.1 Vmaxpu=1.9 model=1 kW=1 pf=0.9 Phases=1 daily=LoadProfileP62
New Load.LoadP63 bus1=8019.3.4 kV=0.24 Vminpu=0.1 Vmaxpu=1.9 model=1 kW=1 pf=0.9 Phases=1 daily=LoadProfileP63
