neutral_to_ground.txt
New Reactor.HG1 phases=1 R=10 X=0.001 bus1=7331.4 bus2=7331.0
New Reactor.HG2 phases=1 R=10 X=0.001 bus1=7512.4 bus2=7512.0
New Reactor.HG3 phases=1 R=10 X=0.001 bus1=8017.4 bus2=8017.0
New Reactor.HG4 phases=1 R=10 X=0.001 bus1=7516.4 bus2=7516.0
New Reactor.HG5 phases=1 R=10 X=0.001 bus1=8018.4 bus2=8018.0
New Reactor.HG6 phases=1 R=10 X=0.001 bus1=7691.4 bus2=7691.0
New Reactor.HG7 phases=1 R=10 X=0.001 bus1=7426.4 bus2=7426.0
New Reactor.HG8 phases=1 R=10 X=0.001 bus1=7759.4 bus2=7759.0
New Reactor.HG9 phases=1 R=10 X=0.001 bus1=8055.4 bus2=8055.0
New Reactor.HG10 phases=1 R=10 X=0.001 bus1=8056.4 bus2=8056.0
New Reactor.HG11 phases=1 R=10 X=0.001 bus1=7570.4 bus2=7570.0
New Reactor.HG12 phases=1 R=10 X=0.001 bus1=7499.4 bus2=7499.0
New Reactor.HG13 phases=1 R=10 X=0.001 bus1=7397.4 bus2=7397.0
New Reactor.HG14 phases=1 R=10 X=0.001 bus1=7244.4 bus2=7244.0
New Reactor.HG15 phases=1 R=10 X=0.001 bus1=6952.4 bus2=6952.0
New Reactor.HG16 phases=1 R=10 X=0.001 bus1=8057.4 bus2=8057.0
New Reactor.HG17 phases=1 R=10 X=0.001 bus1=7488.4 bus2=7488.0
New Reactor.HG18 phases=1 R=10 X=0.001 bus1=7649.4 bus2=7649.0
New Reactor.HG19 phases=1 R=10 X=0.001 bus1=7717.4 bus2=7717.0
New Reactor.HG20 phases=1 R=10 X=0.001 bus1=7525.4 bus2=7525.0
New Reactor.HG21 phases=1 R=10 X=0.001 bus1=8058.4 bus2=8058.0
New Reactor.HG22 phases=1 R=10 X=0.001 bus1=8059.4 bus2=8059.0
New Reactor.HG23 phases=1 R=10 X=0.001 bus1=8060.4 bus2=8060.0
New Reactor.HG24 phases=1 R=10 X=0.001 bus1=8061.4 bus2=8061.0
New Reactor.HG25 phases=1 R=10 X=0.001 bus1=8062.4 bus2=8062.0
New Reactor.HG26 phases=1 R=10 X=0.001 bus1=8063.4 bus2=8063.0
New Reactor.HG27 phases=1 R=10 X=0.001 bus1=8064.4 bus2=8064.0
New Reactor.HG28 phases=1 R=10 X=0.001 bus1=8065.4 bus2=8065.0
New Reactor.HG29 phases=1 R=10 X=0.001 bus1=8066.4 bus2=8066.0
New Reactor.HG30 phases=1 R=10 X=0.001 bus1=8067.4 bus2=8067.0
New Reactor.HG31 phases=1 R=10 X=0.001 bus1=8068.4 bus2=8068.0
New Reactor.HG32 phases=1 R=10 X=0.001 bus1=8069.4 bus2=8069.0
New Reactor.HG33 phases=1 R=10 X=0.001 bus1=8070.4 bus2=8070.0
New Reactor.HG34 phases=1 R=10 X=0.001 bus1=8071.4 bus2=8071.0
New Reactor.HG35 phases=1 R=10 X=0.001 bus1=8072.4 bus2=8072.0
New Reactor.HG36 phases=1 R=10 X=0.001 bus1=8073.4 bus2=8073.0
New Reactor.HG37 phases=1 R=10 X=0.001 bus1=8074.4 bus2=8074.0
New Reactor.HG38 phases=1 R=10 X=0.001 bus1=8075.4 bus2=8075.0
New Reactor.HG39 phases=1 R=10 X=0.001 bus1=8076.4 bus2=8076.0
New Reactor.HG40 phases=1 R=10 X=0.001 bus1=8173.4 bus2=8173.0
New Reactor.HG41 phases=1 R=10 X=0.001 bus1=7747.4 bus2=7747.0
New Reactor.HG42 phases=1 R=10 X=0.001 bus1=7513.4 bus2=7513.0
New Reactor.HG43 phases=1 R=10 X=0.001 bus1=8185.4 bus2=8185.0
New Reactor.HG44 phases=1 R=10 X=0.001 bus1=8211.4 bus2=8211.0
New Reactor.HG45 phases=1 R=10 X=0.001 bus1=7322.4 bus2=7322.0
New Reactor.HG46 phases=1 R=10 X=0.001 bus1=8269.4 bus2=8269.0
New Reactor.HG47 phases=1 R=10 X=0.001 bus1=8289.4 bus2=8289.0
New Reactor.HG48 phases=1 R=10 X=0.001 bus1=7628.4 bus2=7628.0
New Reactor.HG49 phases=1 R=10 X=0.001 bus1=8335.4 bus2=8335.0
New Reactor.HG50 phases=1 R=10 X=0.001 bus1=8336.4 bus2=8336.0
New Reactor.HG51 phases=1 R=10 X=0.001 bus1=8378.4 bus2=8378.0
New Reactor.HG52 phases=1 R=10 X=0.001 bus1=7390.4 bus2=7390.0
New Reactor.HG53 phases=1 R=10 X=0.001 bus1=8422.4 bus2=8422.0
New Reactor.HG54 phases=1 R=10 X=0.001 bus1=8488.4 bus2=8488.0
New Reactor.HG55 phases=1 R=10 X=0.001 bus1=7687.4 bus2=7687.0
New Reactor.HG56 phases=1 R=10 X=0.001 bus1=7400.4 bus2=7400.0
New Reactor.HG57 phases=1 R=10 X=0.001 bus1=7785.4 bus2=7785.0
New Reactor.HG58 phases=1 R=10 X=0.001 bus1=8536.4 bus2=8536.0
New Reactor.HG59 phases=1 R=10 X=0.001 bus1=7236.4 bus2=7236.0
New Reactor.HG60 phases=1 R=10 X=0.001 bus1=7650.4 bus2=7650.0
New Reactor.HG61 phases=1 R=10 X=0.001 bus1=8019.4 bus2=8019.0
New Reactor.HG62 phases=1 R=10 X=0.001 bus1=8019.4 bus2=8019.0
New Reactor.HG63 phases=1 R=10 X=0.001 bus1=8019.4 bus2=8019.0
New Reactor.grounding phases=1 bus1=6687.4 bus2=6687.0 R=1 X=0.001